@<TRIPOS>MOLECULE
./PDB_splitted/1ae1_ligand.pdb
 96 104 0 0 0
SMALL
GASTEIGER

@<TRIPOS>ATOM
1 PA 6.6704 -73.3511 100.4547 P.3 274 NAP274 0.2189
2 O1A 7.1363 -72.4680 100.2228 O.2 274 NAP274 -0.5170
3 O2A 6.9770 -73.3362 102.6210 O.3 274 NAP274 -0.4371
4 O5B 5.3003 -71.4345 101.7647 O.3 274 NAP274 -0.3112
5 C5B 6.0187 -70.4786 100.6719 C.3 274 NAP274 0.1813
6 C4B 3.8058 -68.2793 99.9733 C.3 274 NAP274 0.1800
7 O4B 6.1454 -68.3367 99.7831 O.3 274 NAP274 -0.3307
8 C3B 3.2210 -70.1561 99.6310 C.3 274 NAP274 0.2134
9 O3B 1.9532 -69.0359 100.2905 O.3 274 NAP274 -0.2176
10 C2B 3.2045 -69.8660 99.1937 C.3 274 NAP274 0.2081
11 O2B 0.9626 -68.4972 98.3192 O.3 274 NAP274 -0.2654
12 C1B 4.0808 -68.5696 98.8197 C.3 274 NAP274 0.2382
13 N9A 4.0599 -66.4884 97.7198 N.ar 274 NAP274 -0.2694
14 C8A 6.3490 -68.1804 96.7868 C.ar 274 NAP274 0.1816
15 N7A 6.5375 -68.6772 97.2967 N.ar 274 NAP274 -0.2193
16 C5A 4.4253 -67.1291 95.0962 C.ar 274 NAP274 0.1518
17 C6A 4.4560 -64.8996 95.7449 C.ar 274 NAP274 0.1919
18 N6A 6.0240 -66.3502 94.1130 N.pl3 274 NAP274 -0.1054
19 N1A 3.4715 -65.3573 93.2797 N.ar 274 NAP274 -0.2040
20 C2A 1.9182 -64.7786 96.7058 C.ar 274 NAP274 0.2016
21 N3A 2.6213 -66.4138 96.5805 N.ar 274 NAP274 -0.2048
22 C4A 3.0173 -66.5020 96.2573 C.ar 274 NAP274 0.1692
23 O3 7.9725 -70.6123 102.3547 O.3 274 NAP274 -0.2703
24 PN 8.0434 -71.2422 103.4963 P.3 274 NAP274 0.2189
25 O1N 9.5185 -71.1938 102.9709 O.2 274 NAP274 -0.5170
26 O2N 7.5174 -70.8057 104.0857 O.3 274 NAP274 -0.4371
27 O5D 10.6824 -70.7871 104.1582 O.3 274 NAP274 -0.3112
28 C5D 8.3013 -68.1154 103.2161 C.3 274 NAP274 0.1813
29 C4D 11.4739 -68.7905 102.2846 C.3 274 NAP274 0.1799
30 O4D 11.1113 -68.4559 104.1201 O.3 274 NAP274 -0.3327
31 C3D 11.9521 -68.4514 100.9552 C.3 274 NAP274 0.2158
32 O3D 10.4183 -66.5629 102.9160 O.3 274 NAP274 -0.2175
33 C2D 12.6027 -68.1715 103.0873 C.3 274 NAP274 0.2309
34 O2D 13.5432 -68.9557 102.9804 O.3 274 NAP274 -0.2158
35 C1D 13.2030 -70.1043 103.7125 C.3 274 NAP274 0.2263
36 N1N 13.9802 -71.2087 103.2449 N.pl3 274 NAP274 -0.2787
37 C2N 12.8770 -71.7691 104.8244 C.3 274 NAP274 0.1244
38 C3N 13.6469 -72.7319 104.2883 C.2 274 NAP274 0.0544
39 C7N 12.3148 -73.9883 104.7322 C.2 274 NAP274 0.2818
40 O7N 13.2708 -74.5612 106.3513 O.2 274 NAP274 -0.2670
41 N7N 12.1400 -73.1905 104.6256 N.am 274 NAP274 -0.0839
42 C4N 14.0212 -71.2391 105.3187 C.2 274 NAP274 0.0033
43 C5N 15.5751 -71.7863 105.7690 C.2 274 NAP274 0.0157
44 C6N 15.2900 -69.2356 101.9915 C.2 274 NAP274 0.0633
45 P2B 2.5895 -70.4071 97.0980 P.3 274 NAP274 0.5327
46 O1X 0.3032 -71.2670 96.3595 O.3 274 NAP274 -0.1145
47 O2X 1.3438 -71.7191 96.3924 O.3 274 NAP274 -0.1145
48 O3X 2.3852 -68.6223 95.2350 O.2 274 NAP274 -0.2224
49 PA 34.0010 -47.3676 86.7510 P.3 274 NAP274 0.2189
50 O1A 33.1982 -46.8195 87.5153 O.3 274 NAP274 -0.4371
51 O2A 36.8912 -45.5203 86.7071 O.2 274 NAP274 -0.5170
52 O5B 34.8953 -47.1517 86.2551 O.3 274 NAP274 -0.3112
53 C5B 33.7552 -49.6212 86.0167 C.3 274 NAP274 0.1813
54 C4B 34.8072 -50.1364 82.7928 C.3 274 NAP274 0.1800
55 O4B 34.7741 -50.6143 83.4281 O.3 274 NAP274 -0.3307
56 C3B 32.8017 -48.5549 83.2224 C.3 274 NAP274 0.2134
57 O3B 36.2607 -49.8464 81.2706 O.3 274 NAP274 -0.2176
58 C2B 32.9674 -49.0680 82.7082 C.3 274 NAP274 0.2081
59 O2B 33.1208 -48.9365 80.8377 O.3 274 NAP274 -0.2654
60 C1B 31.8551 -50.1050 83.0181 C.3 274 NAP274 0.2382
61 N9A 32.2983 -50.5314 82.3212 N.ar 274 NAP274 -0.2694
62 C8A 30.4221 -52.4849 83.0424 C.ar 274 NAP274 0.1816
63 N7A 30.1876 -51.2745 82.0137 N.ar 274 NAP274 -0.2193
64 C5A 29.7119 -52.6669 80.3664 C.ar 274 NAP274 0.1518
65 C6A 28.1827 -52.3260 81.3269 C.ar 274 NAP274 0.1919
66 N6A 27.1110 -52.7638 80.0693 N.pl3 274 NAP274 -0.1054
67 N1A 29.9144 -51.1921 80.0239 N.ar 274 NAP274 -0.2040
68 C2A 30.1011 -54.6595 79.5655 C.ar 274 NAP274 0.2016
69 N3A 31.7270 -52.6298 81.1517 N.ar 274 NAP274 -0.2048
70 C4A 31.2024 -51.7878 81.2248 C.ar 274 NAP274 0.1692
71 O3 35.6216 -48.7532 87.8895 O.3 274 NAP274 -0.2703
72 PN 36.0680 -48.8632 88.2754 P.3 274 NAP274 0.2189
73 O1N 36.2094 -47.9868 89.7869 O.3 274 NAP274 -0.4371
74 O2N 37.6614 -48.9692 86.8393 O.2 274 NAP274 -0.5170
75 O5D 34.5502 -48.9656 88.3708 O.3 274 NAP274 -0.3112
76 C5D 35.5083 -50.8799 89.0298 C.3 274 NAP274 0.1813
77 C4D 34.0936 -52.4130 90.2208 C.3 274 NAP274 0.1799
78 O4D 35.4505 -51.8245 91.0158 O.3 274 NAP274 -0.3327
79 C3D 33.6469 -52.3148 90.7666 C.3 274 NAP274 0.2158
80 O3D 32.7567 -54.5890 91.2303 O.3 274 NAP274 -0.2175
81 C2D 32.1202 -52.1149 90.6267 C.3 274 NAP274 0.2309
82 O2D 30.7845 -50.9731 90.6719 O.3 274 NAP274 -0.2158
83 C1D 33.6298 -51.7877 91.8555 C.3 274 NAP274 0.2263
84 N1N 34.0271 -50.8740 93.9215 N.pl3 274 NAP274 -0.2787
85 C2N 34.9391 -48.5812 93.5085 C.3 274 NAP274 0.1244
86 C3N 34.4745 -48.2011 93.9894 C.2 274 NAP274 0.0544
87 C7N 35.8851 -46.9004 93.2338 C.2 274 NAP274 0.2818
88 O7N 35.0228 -45.5405 95.3529 O.2 274 NAP274 -0.2670
89 N7N 36.1983 -47.2462 93.5313 N.am 274 NAP274 -0.0839
90 C4N 35.7142 -48.2526 96.9126 C.2 274 NAP274 0.0033
91 C5N 35.5223 -50.4235 95.3313 C.2 274 NAP274 0.0157
92 C6N 34.9145 -50.5649 96.3839 C.2 274 NAP274 0.0633
93 P2B 33.3935 -47.0380 80.3754 P.3 274 NAP274 0.5327
94 O1X 32.4672 -47.0954 77.2113 O.2 274 NAP274 -0.2224
95 O2X 33.4315 -46.4750 81.2687 O.3 274 NAP274 -0.1145
96 O3X 31.0397 -48.5765 79.2346 O.3 274 NAP274 -0.1145
@<TRIPOS>BOND
     1    57    56    1
     2    94    93    2
     3    56    54    1
     4    56    58    1
     5    59    93    1
     6    59    58    1
     7    93    95    1
     8    93    96    1
     9    54    55    1
    10    54    53    1
    11    58    60    1
    12    51    49    2
    13    74    72    2
    14    60    55    1
    15    60    61    1
    16    52    53    1
    17    52    49    1
    18    69    68   ar
    19    69    70   ar
    20    68    67   ar
    21    49    71    1
    22    49    50    1
    23    70    61   ar
    24    70    64   ar
    25    61    62   ar
    26    72    71    1
    27    72    73    1
    28    72    75    1
    29    67    65   ar
    30    76    75    1
    31    76    77    1
    32    64    65   ar
    33    64    63   ar
    34    62    63   ar
    35    65    66    1
    36    77    78    1
    37    77    79    1
    38    78    83    1
    39    89    87   am
    40    87    88    2
    41    87    86    1
    42    79    80    1
    43    79    81    1
    44    85    86    1
    45    85    84    1
    46    83    84    1
    47    83    81    1
    48    86    90    2
    49    84    92    1
    50    81    82    1
    51    90    91    1
    52    92    91    2
    53    34    33    1
    54    43    44    2
    55    43    42    1
    56    44    36    1
    57    42    38    2
    58    33    35    1
    59    33    31    1
    60    36    35    1
    61    36    37    1
    62    32    31    1
    63    35    30    1
    64    38    37    1
    65    38    39    1
    66    40    39    2
    67    31    29    1
    68    18    17    1
    69    39    41   am
    70    15    14   ar
    71    15    16   ar
    72    30    29    1
    73    29    28    1
    74    17    16   ar
    75    17    19   ar
    76    14    13   ar
    77    16    22   ar
    78    27    28    1
    79    27    24    1
    80     2     1    2
    81    25    24    2
    82    19    20   ar
    83    23    24    1
    84    23     1    1
    85    24    26    1
    86    13    22   ar
    87    13    12    1
    88    22    21   ar
    89     1     4    1
    90     1     3    1
    91     5     4    1
    92     5     6    1
    93    20    21   ar
    94     7    12    1
    95     7     6    1
    96    12    10    1
    97    48    45    2
    98    10     8    1
    99    10    11    1
   100     6     8    1
   101    47    45    1
   102    45    11    1
   103    45    46    1
   104     8     9    1
