@<TRIPOS>MOLECULE
ligand.pdb
 172 49 0 0 0
SMALL
GASTEIGER

@<TRIPOS>ATOM
      1 N1          9.2800   23.7630    3.0040 N.3   902  MK1902902   -0.2543
      2 C1          9.4980   23.9830    4.4590 C.3   902  MK1902902    0.1207
      3 C2         10.5910   24.9050    4.9620 C.3   902  MK1902902    0.1800
      4 C3         10.5910   24.8640    6.4660 C.2   902  MK1902902    0.2165
      5 O1         10.9370   23.8490    7.0570 O.2   902  MK1902902   -0.3608
      6 N2         10.1930   25.9530    7.0940 N.am  902  MK1902902   -0.2279
      7 C4         10.1450   26.2500    8.4900 C.3   902  MK1902902    0.0779
      8 C5          9.3790   27.5770    8.6410 C.3   902  MK1902902    0.0442
      9 C6         11.3980   26.3470    9.0740 C.3   902  MK1902902    0.0442
     10 C7          9.3640   25.2830    9.2680 C.3   902  MK1902902    0.0442
     11 N3         11.8190   24.2820    4.3550 N.3   902  MK1902902   -0.2338
     12 C8         11.7530   23.7760    2.9610 C.3   902  MK1902902    0.0938
     13 C9         10.4400   23.1820    2.4930 C.3   902  MK1902902    0.0900
     14 C10        13.0830   24.9630    4.5520 C.3   902  MK1902902    0.1274
     15 C11        14.2030   24.0640    5.0780 C.3   902  MK1902902    0.1672
     16 O2         15.2420   24.8840    4.6340 O.3   902  MK1902902   -0.2973
     17 C12        14.4400   23.7610    6.5690 C.3   902  MK1902902    0.1121
     18 C13        15.5730   22.8210    7.0050 C.3   902  MK1902902    0.1404
     19 C14        15.6440   22.6640    8.5340 C.3   902  MK1902902    0.0733
     20 C15        16.7330   21.7500    8.9610 C.ar  902  MK1902902   -0.0169
     21 C16        18.0580   21.9160    8.5530 C.ar  902  MK1902902   -0.0087
     22 C17        19.0370   21.0160    8.9470 C.ar  902  MK1902902   -0.0024
     23 C18        18.6730   19.9390    9.7580 C.ar  902  MK1902902   -0.0007
     24 C19        17.3470   19.7730   10.1760 C.ar  902  MK1902902   -0.0024
     25 C20        16.3740   20.6870    9.7720 C.ar  902  MK1902902   -0.0087
     26 C21        15.4470   21.4400    6.3730 C.2   902  MK1902902    0.2002
     27 O3         14.3670   20.8310    6.3970 O.2   902  MK1902902   -0.3685
     28 N4         16.5830   20.9130    5.9240 N.am  902  MK1902902   -0.2019
     29 C22        16.6920   19.5000    5.6040 C.3   902  MK1902902    0.1659
     30 C23        18.0670   18.9450    5.9360 C.3   902  MK1902902    0.1842
     31 O4         19.0610   19.9380    5.7290 O.3   902  MK1902902   -0.2906
     32 C24        18.2260   17.7260    5.0570 C.3   902  MK1902902    0.1088
     33 C25        17.4760   17.9040    3.7600 C.ar  902  MK1902902   -0.0036
     34 C26        17.5000   17.3630    2.4960 C.ar  902  MK1902902   -0.0070
     35 C27        16.6130   17.8720    1.5410 C.ar  902  MK1902902   -0.0025
     36 C28        15.7220   18.9060    1.8650 C.ar  902  MK1902902   -0.0012
     37 C29        15.6830   19.4790    3.1290 C.ar  902  MK1902902    0.0004
     38 C30        16.5040   19.0610    4.1280 C.ar  902  MK1902902    0.0158
     39 C31         8.0330   23.1000    2.6040 C.3   902  MK1902902    0.1007
     40 C32         6.6660   23.7390    2.8760 C.ar  902  MK1902902    0.0340
     41 C33         6.1580   24.8080    2.1240 C.ar  902  MK1902902    0.0829
     42 N5          4.9110   25.4300    2.3000 N.ar  902  MK1902902   -0.2813
     43 C34         4.2070   24.8390    3.3480 C.ar  902  MK1902902    0.0860
     44 C35         4.6540   23.7740    4.1360 C.ar  902  MK1902902    0.0413
     45 C36         5.9050   23.2110    3.8970 C.ar  902  MK1902902    0.0185
     46 O          20.8570   43.1920   21.4500 O.3   305  HOH305305    0.0000
     47 O          14.0760   19.7890   19.4400 O.3   307  HOH307307    0.0000
     48 O          28.0750   21.1770    7.2220 O.3   309  HOH309309    0.0000
     49 O          16.7590   40.2740    1.2870 O.3   314  HOH314314    0.0000
     50 O          13.9970   22.2330   21.4680 O.3   315  HOH315315    0.0000
     51 O          11.2820   30.7380    1.6250 O.3   324  HOH324324    0.0000
     52 O          16.7740   42.7400    2.2960 O.3   325  HOH325325    0.0000
     53 O          14.6230   29.5520   28.2350 O.3   327  HOH327327    0.0000
     54 O           1.6510   36.4630   19.4590 O.3   328  HOH328328    0.0000
     55 O          14.4350   44.9660   11.9130 O.3   329  HOH329329    0.0000
     56 O          19.8770   40.1600   21.9170 O.3   330  HOH330330    0.0000
     57 O          17.1260   45.9340   10.8010 O.3   331  HOH331331    0.0000
     58 O           8.8400   28.0260    4.8600 O.3   332  HOH332332    0.0000
     59 O          10.3410   18.4800   14.4770 O.3   335  HOH335335    0.0000
     60 O          19.2330   16.7110    9.0270 O.3   341  HOH341341    0.0000
     61 O          23.7990   21.9280   12.3910 O.3   342  HOH342342    0.0000
     62 O           9.9530   37.9340    4.5480 O.3   344  HOH344344    0.0000
     63 O           8.4780   35.9950    5.7890 O.3   345  HOH345345    0.0000
     64 O           3.9600   19.3890   17.3840 O.3   357  HOH357357    0.0000
     65 O          27.5610   43.1550   19.0150 O.3   373  HOH373373    0.0000
     66 O           1.2450   19.2920   18.1240 O.3   384  HOH384384    0.0000
     67 O          31.4020   27.0510    3.3350 O.3   386  HOH386386    0.0000
     68 O          32.4460   31.2000    4.4170 O.3   389  HOH389389    0.0000
     69 O          25.4800   38.4680   17.9380 O.3   391  HOH391391    0.0000
     70 O          23.9400   41.7210    0.3460 O.3   394  HOH394394    0.0000
     71 O           5.9120   15.7270    3.3690 O.3   401  HOH401401    0.0000
     72 O           9.2720   33.8910   12.6810 O.3   406  HOH406406    0.0000
     73 O          21.1850   25.2330   16.0480 O.3   408  HOH408408    0.0000
     74 O          18.4740   26.0120   21.6640 O.3   416  HOH416416    0.0000
     75 O           9.4690   16.9100   17.3710 O.3   420  HOH420420    0.0000
     76 O          13.0740   17.7860   16.6150 O.3   422  HOH422422    0.0000
     77 O          28.8210   29.3380    7.3420 O.3   439  HOH439439    0.0000
     78 O          23.2840   23.1070   15.1320 O.3   457  HOH457457    0.0000
     79 O           3.1140   26.2600    6.7730 O.3   468  HOH468468    0.0000
     80 O           6.3820   26.4240    5.8930 O.3   501  HOH501501    0.0000
     81 O          35.2930   43.0060    5.2120 O.3   503  HOH503503    0.0000
     82 O          21.8910   49.7150    7.1920 O.3   510  HOH510510    0.0000
     83 O          34.0850   32.7350    2.8490 O.3   524  HOH524524    0.0000
     84 O          31.4910   41.5240    6.6780 O.3   529  HOH529529    0.0000
     85 O           5.9430   34.2230    6.7480 O.3   553  HOH553553    0.0000
     86 O           0.9340   40.2590   19.4050 O.3   561  HOH561561    0.0000
     87 O          29.5390   25.4860   13.2810 O.3   567  HOH567567    0.0000
     88 O          24.5520   17.3520   10.2950 O.3   572  HOH572572    0.0000
     89 O          23.1120   15.5100    8.7760 O.3   575  HOH575575    0.0000
     90 O          20.4450    8.0360  -12.6310 O.3   301  HOH301301    0.0000
     91 O          20.0440   14.8220    4.6380 O.3   303  HOH303303    0.0000
     92 O          21.5380    6.8750  -10.0990 O.3   304  HOH304304    0.0000
     93 O          22.4490   23.9580    5.2520 O.3   306  HOH306306    0.0000
     94 O          11.7200   21.2890    7.1900 O.3   308  HOH308308    0.0000
     95 O          14.0970    5.1110  -11.6380 O.3   312  HOH312312    0.0000
     96 O          20.9980   21.8340    6.5610 O.3   313  HOH313313    0.0000
     97 O          22.6590   14.5830   -2.1960 O.3   316  HOH316316    0.0000
     98 O          28.7240   15.6290  -11.6600 O.3   317  HOH317317    0.0000
     99 O          16.5390   45.2070    0.0790 O.3   318  HOH318318    0.0000
    100 O          23.6780   14.9310    2.6800 O.3   319  HOH319319    0.0000
    101 O          20.7180   15.9760   -3.6570 O.3   321  HOH321321    0.0000
    102 O          31.2490   26.7960   -9.5950 O.3   323  HOH323323    0.0000
    103 O          28.8130   28.4450   -2.1060 O.3   326  HOH326326    0.0000
    104 O          12.2510   39.5510   -2.6720 O.3   333  HOH333333    0.0000
    105 O          25.4650   12.5920   -8.6700 O.3   334  HOH334334    0.0000
    106 O          12.9980   36.2050   -3.9720 O.3   338  HOH338338    0.0000
    107 O          17.5410   17.0600  -17.1940 O.3   339  HOH339339    0.0000
    108 O           5.3210   14.3250   -4.8660 O.3   340  HOH340340    0.0000
    109 O           9.3140   17.3300   -9.8010 O.3   346  HOH346346    0.0000
    110 O           7.4350   26.6520  -14.8540 O.3   347  HOH347347    0.0000
    111 O           4.4050   16.7040   -3.6350 O.3   348  HOH348348    0.0000
    112 O          19.4140    7.0260    4.4280 O.3   349  HOH349349    0.0000
    113 O           6.7180   34.5380   -1.3220 O.3   350  HOH350350    0.0000
    114 O          15.0410   31.7430  -13.2350 O.3   354  HOH354354    0.0000
    115 O          27.4040   32.0780  -10.8600 O.3   355  HOH355355    0.0000
    116 O          27.6730   18.7890   -6.1550 O.3   356  HOH356356    0.0000
    117 O          21.2890   -1.1610   -5.1020 O.3   358  HOH358358    0.0000
    118 O           6.9730   36.5230    1.4890 O.3   359  HOH359359    0.0000
    119 O          27.6020   21.2340   -0.6350 O.3   360  HOH360360    0.0000
    120 O           3.9020    9.3760   -0.0270 O.3   362  HOH362362    0.0000
    121 O          28.4980   36.6320   -7.5290 O.3   364  HOH364364    0.0000
    122 O          18.5720   40.5670  -10.0420 O.3   366  HOH366366    0.0000
    123 O          25.6580   18.9700    0.4280 O.3   367  HOH367367    0.0000
    124 O          20.8430    1.2630   -7.0140 O.3   369  HOH369369    0.0000
    125 O          13.9750   15.7410   12.0700 O.3   370  HOH370370    0.0000
    126 O           7.6610   23.8760   -6.3240 O.3   374  HOH374374    0.0000
    127 O          10.1250    5.7060   -1.4580 O.3   375  HOH375375    0.0000
    128 O          18.4500   20.4970  -18.7280 O.3   376  HOH376376    0.0000
    129 O          29.2670   20.4870   -3.4970 O.3   377  HOH377377    0.0000
    130 O           6.6850   26.5410   -5.6080 O.3   379  HOH379379    0.0000
    131 O          25.8100   26.7890  -19.1060 O.3   381  HOH381381    0.0000
    132 O          21.1440   -4.4280  -11.3310 O.3   383  HOH383383    0.0000
    133 O          16.9040   27.5940  -15.9380 O.3   387  HOH387387    0.0000
    134 O          23.9260   45.6120   -4.9980 O.3   388  HOH388388    0.0000
    135 O          25.3000   17.4930    3.0760 O.3   390  HOH390390    0.0000
    136 O           6.6180   28.0790   -3.4270 O.3   392  HOH392392    0.0000
    137 O          19.7950   13.6510  -16.6060 O.3   393  HOH393393    0.0000
    138 O           7.2020    9.9820   -4.1030 O.3   395  HOH395395    0.0000
    139 O           8.4740   34.2030   -4.8930 O.3   400  HOH400400    0.0000
    140 O          16.6590   15.8660   11.4460 O.3   405  HOH405405    0.0000
    141 O          26.4000   10.0570   -3.2870 O.3   410  HOH410410    0.0000
    142 O           9.5030    3.4890   -4.4190 O.3   414  HOH414414    0.0000
    143 O          15.4380   12.9730  -18.4840 O.3   419  HOH419419    0.0000
    144 O          11.4280   19.9560  -24.5510 O.3   425  HOH425425    0.0000
    145 O          18.7250   43.1710   -5.5750 O.3   430  HOH430430    0.0000
    146 O          32.1410   29.6200   -8.5800 O.3   436  HOH436436    0.0000
    147 O           8.8110   13.6670  -20.2560 O.3   443  HOH443443    0.0000
    148 O           4.0710   26.1690   -0.2300 O.3   444  HOH444444    0.0000
    149 O          11.4250   44.6360   -3.0330 O.3   461  HOH461461    0.0000
    150 O           6.9020   23.6860  -10.0660 O.3   469  HOH469469    0.0000
    151 O           5.7490   25.7850  -19.7920 O.3   471  HOH471471    0.0000
    152 O          25.5920   16.4040   -5.8050 O.3   500  HOH500500    0.0000
    153 O           4.0400   15.5160   -7.2000 O.3   502  HOH502502    0.0000
    154 O          28.6400   34.2320   -5.6370 O.3   505  HOH505505    0.0000
    155 O           8.9790   11.1730   11.1120 O.3   506  HOH506506    0.0000
    156 O          19.8820    3.9860  -18.1360 O.3   509  HOH509509    0.0000
    157 O          27.4090   15.3550    2.2000 O.3   514  HOH514514    0.0000
    158 O          17.2220   39.7660  -23.7740 O.3   515  HOH515515    0.0000
    159 O          28.7420   24.1580  -16.6410 O.3   517  HOH517517    0.0000
    160 O          22.6940   -2.1920  -12.5890 O.3   525  HOH525525    0.0000
    161 O          17.9010   43.1570  -14.0820 O.3   526  HOH526526    0.0000
    162 O          18.1920    8.9140   11.3440 O.3   531  HOH531531    0.0000
    163 O          19.5070   45.2150    1.7090 O.3   532  HOH532532    0.0000
    164 O           1.4420   14.7000   -6.1280 O.3   548  HOH548548    0.0000
    165 O          19.9080    8.7180  -19.2150 O.3   549  HOH549549    0.0000
    166 O          21.4990   44.8840   -1.2800 O.3   556  HOH556556    0.0000
    167 O          10.0310    8.5930  -22.0520 O.3   564  HOH564564    0.0000
    168 O           2.8170   28.1330    2.1910 O.3   568  HOH568568    0.0000
    169 O          15.8350   40.1050   -5.9710 O.3   591  HOH591591    0.0000
    170 O           4.5150   36.4510   -4.4990 O.3   595  HOH595595    0.0000
    171 O          24.1270  -10.9940   -0.9820 O.3   613  HOH613613    0.0000
    172 O          30.1120   17.9120   -4.7910 O.3   617  HOH617617    0.0000
@<TRIPOS>BOND
     1    35    36   ar
     2    35    34   ar
     3    36    37   ar
     4    41    42   ar
     5    41    40   ar
     6    42    43   ar
     7    13    12    1
     8    13     1    1
     9    34    33   ar
    10    39    40    1
    11    39     1    1
    12    40    45   ar
    13    12    11    1
    14     1     2    1
    15    37    38   ar
    16    43    44   ar
    17    33    38   ar
    18    33    32    1
    19    45    44   ar
    20    38    29    1
    21    11    14    1
    22    11     3    1
    23     2     3    1
    24    14    15    1
    25    16    15    1
    26     3     4    1
    27    32    30    1
    28    15    17    1
    29    29    28    1
    30    29    30    1
    31    31    30    1
    32    28    26   am
    33    26    27    2
    34    26    18    1
    35     4     5    2
    36     4     6   am
    37    17    18    1
    38    18    19    1
    39     6     7    1
    40     7     8    1
    41     7     9    1
    42     7    10    1
    43    19    20    1
    44    21    22   ar
    45    21    20   ar
    46    22    23   ar
    47    20    25   ar
    48    23    24   ar
    49    25    24   ar
