@<TRIPOS>MOLECULE
./PDB_splitted/223l_ligand.pdb
 19 15 0 0 0
SMALL
GASTEIGER

@<TRIPOS>ATOM
      1 CL         31.4870   20.3560   -8.2500 Cl    178  CL178       0.0000
      2  C1        43.9850   16.8300   32.3760 C.3   900  BME900      0.1946
      3  C2        42.9590   17.9370   32.1830 C.3   900  BME900      0.1041
      4  O1        45.0880   17.1670   31.5440 O.3   900  BME900     -0.2194
      5  S2        43.4380   18.9520   30.7700 S.3   900  BME900     -0.0793
      6  C1        33.9270   -2.6140    9.4570 C.3   901  BME901      0.1946
      7  C2        33.5090   -1.1240    9.5130 C.3   901  BME901      0.1041
      8  O1        34.6780   -2.9670   10.6140 O.3   901  BME901     -0.2194
      9  S2        34.8720    0.0270    9.8950 S.3   901  BME901     -0.0793
     10  C1        32.1350   -1.3790   13.4080 C.3   902  BME902      0.1946
     11  C2        32.2090   -1.1990   14.9080 C.3   902  BME902      0.1041
     12  O1        33.4520   -1.1060   12.9760 O.3   902  BME902     -0.2194
     13  S2        33.9200   -0.7420   15.2890 S.3   902  BME902     -0.0793
     14  C1        29.4090    7.9130   -1.7090 C.ar  169  BNZ169      0.0000
     15  C2        30.1620    7.3800   -2.7460 C.ar  169  BNZ169      0.0000
     16  C3        31.3980    7.9340   -3.0780 C.ar  169  BNZ169      0.0000
     17  C4        31.8660    9.0540   -2.4000 C.ar  169  BNZ169      0.0000
     18  C5        31.1000    9.6020   -1.3760 C.ar  169  BNZ169      0.0000
     19  C6        29.8700    9.0320   -1.0270 C.ar  169  BNZ169      0.0000
@<TRIPOS>BOND
     1    16    15   ar
     2    16    17   ar
     3    15    14   ar
     4    17    18   ar
     5    14    19   ar
     6    18    19   ar
     7     6     7    1
     8     6     8    1
     9     7     9    1
    10    12    10    1
    11    10    11    1
    12    11    13    1
    13     5     3    1
    14     4     2    1
    15     3     2    1
