@<TRIPOS>MOLECULE
./PDB_splitted/227l_ligand.pdb
 16 13 0 0 0
SMALL
GASTEIGER

@<TRIPOS>ATOM
      1 CL         42.9440   16.4920    1.8670 Cl    173  CL173       0.0000
      2 CL         32.0770   15.5620   24.2050 Cl    178  CL178       0.0000
      3  C1        32.7190   -0.5280   15.4800 C.3   901  BME901      0.1946
      4  C2        33.5690   -0.0470   14.3240 C.3   901  BME901      0.1041
      5  O1        31.6750   -1.2950   14.8940 O.3   901  BME901     -0.2194
      6  S2        33.4290   -1.3250   13.0660 S.3   901  BME901     -0.0793
      7  C1        33.7170   -2.7970    9.9230 C.3   902  BME902      0.1946
      8  C2        32.7620   -1.6120   10.1810 C.3   902  BME902      0.1041
      9  O1        34.7410   -2.3880    9.0350 O.3   902  BME902     -0.2194
     10  S2        33.4750   -0.3490   11.2740 S.3   902  BME902     -0.0793
     11  C1        36.2510   11.0000   14.9200 C.ar  169  BNZ169      0.0000
     12  C2        35.1250   10.1470   14.8780 C.ar  169  BNZ169      0.0000
     13  C3        33.8120   10.6830   14.7890 C.ar  169  BNZ169      0.0000
     14  C4        33.6200   12.0760   14.7090 C.ar  169  BNZ169      0.0000
     15  C5        34.7470   12.9220   14.7950 C.ar  169  BNZ169      0.0000
     16  C6        36.0590   12.3860   14.8630 C.ar  169  BNZ169      0.0000
@<TRIPOS>BOND
     1     9     7    1
     2     7     8    1
     3     8    10    1
     4    10     6    1
     5     6     4    1
     6     4     3    1
     7    14    13   ar
     8    14    15   ar
     9    13    12   ar
    10    15    16   ar
    11    16    11   ar
    12    12    11   ar
    13     5     3    1
