@<TRIPOS>MOLECULE
./PDB_splitted/421p_ligand.pdb
 33 36 0 0 0
SMALL
GASTEIGER

@<TRIPOS>ATOM
      1 MG          4.6340   34.1110   19.2480 Mg    168  MG168       0.0000
      2  PG         5.1720   32.1840   22.0970 P.3   167  GNP167      0.0000
      3  O1G        4.7810   32.6500   23.4230 O.3   167  GNP167      0.0000
      4  O2G        4.2720   32.6400   21.0500 O.3   167  GNP167      0.0000
      5  O3G        4.7000   30.6480   22.1270 O.2   167  GNP167      0.0000
      6  N3B        6.7810   32.2700   21.7360 N.3   167  GNP167      0.0000
      7  PB         7.2980   32.0940   20.1550 P.3   167  GNP167      0.0000
      8  O1B        7.6050   30.7160   19.7660 O.2   167  GNP167      0.0000
      9  O2B        6.5380   32.7790   19.1030 O.3   167  GNP167      0.0000
     10  O3A        8.7840   32.7610   20.1000 O.3   167  GNP167      0.0000
     11  PA         9.2620   34.2920   19.6820 P.3   167  GNP167      0.0000
     12  O1A        9.5220   34.4250   18.2490 O.2   167  GNP167     -0.5000
     13  O2A        8.4450   35.2750   20.4020 O.3   167  GNP167     -0.5000
     14  O5'       10.7400   34.2860   20.2840 O.3   167  GNP167      0.0000
     15  C5'       11.0800   34.1070   21.6520 C.3   167  GNP167      0.0000
     16  C4'       12.5430   34.4680   21.8560 C.3   167  GNP167      0.0000
     17  O4'       13.3790   33.6230   21.0420 O.3   167  GNP167      0.0000
     18  C3'       12.8190   35.9330   21.4200 C.3   167  GNP167      0.0000
     19  O3'       13.7140   36.5750   22.3600 O.3   167  GNP167      0.0000
     20  C2'       13.3330   35.7180   19.9750 C.3   167  GNP167      0.0000
     21  O2'       14.1510   36.7310   19.3450 O.3   167  GNP167      0.0000
     22  C1'       14.1670   34.4690   20.2000 C.3   167  GNP167      0.0000
     23  N9        14.4920   33.8420   18.8900 N.ar  167  GNP167      0.0000
     24  C8        13.6420   33.4040   17.9180 C.ar  167  GNP167      0.0000
     25  N7        14.2010   32.8780   16.8860 N.ar  167  GNP167      0.0000
     26  C5        15.5470   32.8780   17.2350 C.ar  167  GNP167      0.0000
     27  C6        16.6620   32.4040   16.5020 C.ar  167  GNP167      0.0000
     28  O6        16.6630   32.0130   15.3280 O.2   167  GNP167      0.0000
     29  N1        17.8300   32.4810   17.2710 N.ar  167  GNP167      0.0000
     30  C2        17.9450   33.1570   18.4820 C.ar  167  GNP167      0.0000
     31  N2        19.1690   33.3710   18.9700 N.pl3 167  GNP167      0.0000
     32  N3        16.9020   33.6560   19.1370 N.ar  167  GNP167      0.0000
     33  C4        15.7400   33.4810   18.4560 C.ar  167  GNP167      0.0000
@<TRIPOS>BOND
     1    28    27    2
     2    27    26   ar
     3    27    29   ar
     4    25    26   ar
     5    25    24   ar
     6    26    33   ar
     7    29    30   ar
     8    24    23   ar
     9    12    11    2
    10    33    23   ar
    11    33    32   ar
    12    30    31    1
    13    30    32   ar
    14    23    22    1
    15     9     1    1
    16     9     7    1
    17     1     4    1
    18    21    20    1
    19    11    10    1
    20    11    14    1
    21    11    13    1
    22     8     7    2
    23    20    22    1
    24    20    18    1
    25    10     7    1
    26     7     6    1
    27    22    17    1
    28    14    15    1
    29    17    16    1
    30     4     2    1
    31    18    16    1
    32    18    19    1
    33    15    16    1
    34     6     2    1
    35     2     5    2
    36     2     3    1
