@<TRIPOS>MOLECULE
./PDB_splitted/6tol_ligand.pdb
 73 67 0 0 0
SMALL
GASTEIGER

@<TRIPOS>ATOM
      1 CL        -28.8650   11.0150   13.8740 Cl    201  NQW201     -0.0776
      2  C21      -27.4250   10.2610   13.2760 C.ar  201  NQW201      0.1101
      3  C22      -27.2850    9.9230   11.9420 C.ar  201  NQW201      0.1160
      4  N5       -26.2650    9.1910   11.4930 N.ar  201  NQW201     -0.2111
      5  C6       -25.3860    8.7900   12.4200 C.ar  201  NQW201      0.2216
      6  N        -24.3840    8.0060   12.0170 N.pl3 201  NQW201     -0.2732
      7  C2       -23.3580    7.4300   12.8830 C.3   201  NQW201      0.1231
      8  C3       -24.3090    7.4760   10.6570 C.3   201  NQW201      0.1231
      9  C4       -24.6180    5.9960   10.7120 C.3   201  NQW201      0.1350
     10  C5       -24.2720    5.3020    9.4230 C.3   201  NQW201      0.0339
     11  O        -23.8220    5.3960   11.7510 O.3   201  NQW201     -0.3552
     12  C1       -23.9350    6.0400   13.0350 C.3   201  NQW201      0.1350
     13  C        -23.1530    5.2090   14.0180 C.3   201  NQW201      0.0339
     14  C7       -26.4430    9.7940   14.1610 C.ar  201  NQW201      0.1667
     15  N1       -25.4340    9.0530   13.7250 N.ar  201  NQW201     -0.1960
     16  N2       -26.3840   10.1930   15.4470 N.pl3 201  NQW201     -0.1933
     17  C8       -25.6420    9.6670   16.5090 C.ar  201  NQW201      0.0737
     18  C13      -25.1740    8.3570   16.6020 C.ar  201  NQW201      0.0181
     19  C12      -24.1910    8.0150   17.5160 C.ar  201  NQW201      0.0201
     20  C11      -23.6580    9.0110   18.3190 C.ar  201  NQW201      0.0798
     21  N3       -22.6540    8.9970   19.2750 N.ar  201  NQW201     -0.2779
     22  C14      -21.9270    7.8250   19.7420 C.3   201  NQW201      0.1351
     23  C15      -22.4400   10.2700   19.7480 C.ar  201  NQW201      0.3316
     24  O1       -21.6470   10.6080   20.5980 O.2   201  NQW201     -0.2463
     25  N4       -23.3210   11.0830   19.0660 N.ar  201  NQW201     -0.2798
     26  C10      -24.1010   10.3180   18.2090 C.ar  201  NQW201      0.0810
     27  C9       -25.1160   10.6540   17.3340 C.ar  201  NQW201      0.0353
     28  C16      -23.2600   12.5400   19.0970 C.3   201  NQW201      0.1131
     29  C17      -22.2410   13.0690   18.0940 C.3   201  NQW201      0.0550
     30  C18      -21.9790   14.5670   18.1430 C.3   201  NQW201      0.1287
     31  O2       -21.7080   14.9230   19.5080 O.3   201  NQW201     -0.2256
     32  C20      -20.7650   14.9290   17.3080 C.3   201  NQW201      0.0330
     33  C19      -23.1970   15.3500   17.6830 C.3   201  NQW201      0.0330
     34  C1       -17.4320   34.6010   -0.7640 C.3   202  EDO202      0.2175
     35  O1       -17.3050   35.9270   -0.3160 O.3   202  EDO202     -0.2175
     36  C2       -17.3370   34.5450   -2.3100 C.3   202  EDO202      0.2175
     37  O2       -17.4100   33.1870   -2.7260 O.3   202  EDO202     -0.2175
     38  C1       -45.9060   10.7840   30.2900 C.3   203  EDO203      0.2175
     39  O1       -45.9060    9.5610   31.0120 O.3   203  EDO203     -0.2175
     40  C2       -47.1510   10.8440   29.3720 C.3   203  EDO203      0.2175
     41  O2       -47.1630   12.0630   28.6410 O.3   203  EDO203     -0.2175
     42  C1       -19.6900    9.9880   17.5770 C.3   204  EDO204      0.2175
     43  O1       -20.8410    9.9630   16.7320 O.3   204  EDO204     -0.2175
     44  C2       -18.8560   11.2470   17.3130 C.3   204  EDO204      0.2175
     45  O2       -18.2030   11.5780   18.5230 O.3   204  EDO204     -0.2175
     46  C1       -31.6130    8.9210   40.4300 C.3   205  EDO205      0.2175
     47  O1       -32.8130    8.9680   39.6510 O.3   205  EDO205     -0.2175
     48  C2       -31.0480   10.3510   40.6450 C.3   205  EDO205      0.2175
     49  O2       -29.6860   10.3200   41.0400 O.3   205  EDO205     -0.2175
     50  C1       -15.5950   15.5090   41.1710 C.3   206  EDO206      0.2175
     51  O1       -16.6890   16.1420   41.8130 O.3   206  EDO206     -0.2175
     52  C2       -14.7460   16.5830   40.4560 C.3   206  EDO206      0.2175
     53  O2       -13.6370   15.9640   39.8280 O.3   206  EDO206     -0.2175
     54  C1       -34.3870   29.4730   25.3030 C.3   207  EDO207      0.2460
     55  C1       -36.0450   30.3080   24.3130 C.3   207  EDO207      0.1804
     56  O1       -34.9150   28.4110   26.0650 O.3   207  EDO207     -0.2147
     57  O1       -35.4800   29.3230   23.4580 O.3   207  EDO207     -0.3237
     58  C2       -34.6740   29.2140   23.8040 C.3   207  EDO207      0.3024
     59  C2       -36.8660   31.3340   23.4960 C.3   207  EDO207      0.2141
     60  O2       -33.8660   30.0820   23.0360 O.3   207  EDO207     -0.1869
     61  O2       -38.0540   30.7300   23.0020 O.3   207  EDO207     -0.2176
     62  C1       -21.2850   30.9820   15.4720 C.3   208  EDO208      0.2175
     63  O1       -21.7160   29.7730   14.8670 O.3   208  EDO208     -0.2175
     64  C2       -22.1070   31.2710   16.7530 C.3   208  EDO208      0.2175
     65  O2       -23.3550   31.8540   16.4100 O.3   208  EDO208     -0.2175
     66  C1       -21.9020   10.4340   13.7300 C.3   209  EDO209      0.2175
     67  O1       -22.8250   10.3640   14.7960 O.3   209  EDO209     -0.2175
     68  C2       -21.0730   11.6980   13.9580 C.3   209  EDO209      0.2175
     69  O2       -21.8720   12.5160   14.7760 O.3   209  EDO209     -0.2175
     70  S        -34.4160   18.9410   36.2940 S.O   210  DMS210      0.0437
     71  O        -35.1450   18.2010   37.3330 O.2   210  DMS210     -0.2558
     72  C1       -35.6120   20.0500   35.6070 C.3   210  DMS210      0.1061
     73  C2       -33.4230   20.1120   37.1760 C.3   210  DMS210      0.1061
@<TRIPOS>BOND
     1    37    36    1
     2    36    34    1
     3    34    35    1
     4    10     9    1
     5     8     9    1
     6     8     6    1
     7     9    11    1
     8     4     3   ar
     9     4     5   ar
    10    11    12    1
    11     3     2   ar
    12     6     5    1
    13     6     7    1
    14     5    15   ar
    15     7    12    1
    16    12    13    1
    17     2     1    1
    18     2    14   ar
    19    15    14   ar
    20    66    68    1
    21    66    67    1
    22    68    69    1
    23    14    16    1
    24    63    62    1
    25    16    17    1
    26    62    64    1
    27    65    64    1
    28    17    18   ar
    29    17    27   ar
    30    18    19   ar
    31    43    42    1
    32    32    30    1
    33    44    42    1
    34    44    45    1
    35    27    26   ar
    36    19    20   ar
    37    33    30    1
    38    29    30    1
    39    29    28    1
    40    30    31    1
    41    26    20   ar
    42    26    25   ar
    43    20    21   ar
    44    25    28    1
    45    25    23   ar
    46    21    22    1
    47    21    23   ar
    48    23    24    2
    49    61    59    1
    50    60    58    1
    51    57    58    1
    52    57    55    1
    53    59    55    1
    54    58    54    1
    55    54    56    1
    56    41    40    1
    57    40    38    1
    58    38    39    1
    59    72    70    1
    60    70    73    1
    61    70    71    2
    62    47    46    1
    63    53    52    1
    64    46    48    1
    65    52    50    1
    66    48    49    1
    67    50    51    1
