@<TRIPOS>MOLECULE
./PDB_splitted/721p_ligand.pdb
 33 36 0 0 0
SMALL
GASTEIGER

@<TRIPOS>ATOM
      1 MG          4.6490   33.7610   19.1920 Mg    168  MG168       0.0000
      2  PG         5.1530   32.0630   22.0210 P.3   167  GNP167      0.0000
      3  O1G        4.8990   32.4460   23.4200 O.3   167  GNP167      0.0000
      4  O2G        4.1750   32.6630   21.1320 O.3   167  GNP167      0.0000
      5  O3G        4.6520   30.5490   21.9730 O.2   167  GNP167      0.0000
      6  N3B        6.7490   32.1230   21.5820 N.3   167  GNP167      0.0000
      7  PB         7.3080   31.8720   20.0240 P.3   167  GNP167      0.0000
      8  O1B        7.4640   30.4620   19.6800 O.2   167  GNP167      0.0000
      9  O2B        6.6340   32.6020   18.9590 O.3   167  GNP167      0.0000
     10  O3A        8.7730   32.4890   19.9800 O.3   167  GNP167      0.0000
     11  PA         9.2670   34.0070   19.5570 P.3   167  GNP167      0.0000
     12  O1A        9.4180   34.0780   18.1000 O.2   167  GNP167     -0.5000
     13  O2A        8.5290   35.0740   20.3030 O.3   167  GNP167     -0.5000
     14  O5'       10.7450   33.9610   20.1170 O.3   167  GNP167      0.0000
     15  C5'       11.1110   33.7560   21.4760 C.3   167  GNP167      0.0000
     16  C4'       12.5560   34.2000   21.6590 C.3   167  GNP167      0.0000
     17  O4'       13.4860   33.4200   20.8700 O.3   167  GNP167      0.0000
     18  C3'       12.7470   35.6640   21.2390 C.3   167  GNP167      0.0000
     19  O3'       13.6690   36.3300   22.0860 O.3   167  GNP167      0.0000
     20  C2'       13.3680   35.5250   19.8680 C.3   167  GNP167      0.0000
     21  O2'       14.1090   36.6940   19.5110 O.3   167  GNP167      0.0000
     22  C1'       14.2750   34.2940   20.0690 C.3   167  GNP167      0.0000
     23  N9        14.4370   33.5590   18.8030 N.ar  167  GNP167      0.0000
     24  C8        13.4590   33.1050   17.9320 C.ar  167  GNP167      0.0000
     25  N7        13.9020   32.4530   16.9030 N.ar  167  GNP167      0.0000
     26  C5        15.2830   32.5030   17.0730 C.ar  167  GNP167      0.0000
     27  C6        16.3000   31.9440   16.3050 C.ar  167  GNP167      0.0000
     28  O6        16.2260   31.3850   15.2390 O.2   167  GNP167      0.0000
     29  N1        17.5260   32.1200   16.8740 N.ar  167  GNP167      0.0000
     30  C2        17.7890   32.8160   18.0300 C.ar  167  GNP167      0.0000
     31  N2        19.0800   32.9880   18.3410 N.pl3 167  GNP167      0.0000
     32  N3        16.8370   33.3310   18.7890 N.ar  167  GNP167      0.0000
     33  C4        15.6180   33.1540   18.2420 C.ar  167  GNP167      0.0000
@<TRIPOS>BOND
     1    28    27    2
     2    27    29   ar
     3    27    26   ar
     4    29    30   ar
     5    25    26   ar
     6    25    24   ar
     7    26    33   ar
     8    24    23   ar
     9    30    31    1
    10    30    32   ar
    11    12    11    2
    12    33    32   ar
    13    33    23   ar
    14    23    22    1
    15     9     1    1
    16     9     7    1
    17     1     4    1
    18    21    20    1
    19    11    10    1
    20    11    14    1
    21    11    13    1
    22     8     7    2
    23    20    22    1
    24    20    18    1
    25    10     7    1
    26     7     6    1
    27    22    17    1
    28    14    15    1
    29    17    16    1
    30     4     2    1
    31    18    16    1
    32    18    19    1
    33    15    16    1
    34     6     2    1
    35     5     2    2
    36     2     3    1
