@<TRIPOS>MOLECULE
./PDB_splitted/7loc_ligand.pdb
 24 21 0 0 0
SMALL
GASTEIGER

@<TRIPOS>ATOM
      1  C1        27.1470  -14.8360  -16.1380 C.3   201  BME201      0.1946
      2  C2        25.7370  -15.4040  -16.1210 C.3   201  BME201      0.1041
      3  O1        27.3360  -14.2050  -14.9100 O.3   201  BME201     -0.2194
      4  S2        25.6110  -16.5470  -14.7190 S.3   201  BME201     -0.0793
      5  C1        15.4570  -24.3560  -21.9370 C.3   202  BME202      0.1946
      6  C2        14.1510  -23.8240  -21.3520 C.3   202  BME202      0.1041
      7  O1        16.0740  -23.2690  -22.5710 O.3   202  BME202     -0.2194
      8  S2        14.4670  -22.4940  -20.1580 S.3   202  BME202     -0.0793
      9  C         26.8720  -11.8800  -11.7980 C.3   203  TRS203      0.1682
     10  C1        28.0040  -12.3850  -10.9060 C.3   203  TRS203      0.2047
     11  C2        25.6030  -12.6910  -11.5590 C.3   203  TRS203      0.2047
     12  C3        26.6580  -10.4110  -11.4490 C.3   203  TRS203      0.2047
     13  N         27.1960  -12.0330  -13.2080 N.3   203  TRS203     -0.1263
     14  O1        28.3820  -13.6590  -11.3380 O.3   203  TRS203     -0.2187
     15  O2        25.2170  -12.5020  -10.2300 O.3   203  TRS203     -0.2187
     16  O3        25.6970   -9.8570  -12.2980 O.3   203  TRS203     -0.2187
     17  C02       22.1810  -27.1990   -5.3830 C.ar  204  Y87204      0.1402
     18  C03       22.9770  -26.1420   -5.7860 C.ar  204  Y87204      0.0301
     19  C04       23.1810  -25.0810   -4.9300 C.ar  204  Y87204      0.0090
     20  C05       22.5970  -25.0800   -3.6780 C.ar  204  Y87204      0.0347
     21  C07       21.8010  -26.1420   -3.2740 C.ar  204  Y87204      0.0090
     22  C08       21.5890  -27.2100   -4.1310 C.ar  204  Y87204      0.0301
     23  F01       22.0070  -28.2280   -6.2490 F     204  Y87204     -0.2042
     24 BR06       22.9020  -23.5800   -2.4940 Br    204  Y87204     -0.0490
@<TRIPOS>BOND
     1     7     5    1
     2     5     6    1
     3     6     8    1
     4     1     2    1
     5     1     3    1
     6     2     4    1
     7    13     9    1
     8    16    12    1
     9     9    11    1
    10     9    12    1
    11     9    10    1
    12    11    15    1
    13    14    10    1
    14    23    17    1
    15    18    17   ar
    16    18    19   ar
    17    17    22   ar
    18    19    20   ar
    19    22    21   ar
    20    20    21   ar
    21    20    24    1
