@<TRIPOS>MOLECULE
./PDB_splitted/821p_ligand.pdb
 46 49 0 0 0
SMALL
GASTEIGER

@<TRIPOS>ATOM
      1 MG          4.6810   33.6800   19.1120 Mg    168  MG168       0.0000
      2  PG         5.0810   32.0530   21.9020 P.3   167  GNP167      0.0000
      3  O1G        4.8660   32.6250   23.2280 O.3   167  GNP167      0.0000
      4  O2G        4.1340   32.5730   20.9490 O.3   167  GNP167      0.0000
      5  O3G        4.6410   30.5110   21.9330 O.2   167  GNP167      0.0000
      6  N3B        6.6570   32.1580   21.4800 N.3   167  GNP167      0.0000
      7  PB         7.2810   31.8080   19.9940 P.3   167  GNP167      0.0000
      8  O1B        7.4390   30.3600   19.7450 O.2   167  GNP167      0.0000
      9  O2B        6.6630   32.5360   18.8710 O.3   167  GNP167      0.0000
     10  O3A        8.7740   32.3780   20.0480 O.3   167  GNP167      0.0000
     11  PA         9.2120   33.9020   19.5510 P.3   167  GNP167      0.0000
     12  O1A        9.2140   33.9900   18.0540 O.2   167  GNP167     -0.5000
     13  O2A        8.4850   34.9490   20.3170 O.3   167  GNP167     -0.5000
     14  O5'       10.7200   33.8790   20.0580 O.3   167  GNP167      0.0000
     15  C5'       11.0720   33.5600   21.4110 C.3   167  GNP167      0.0000
     16  C4'       12.4820   34.0560   21.7320 C.3   167  GNP167      0.0000
     17  O4'       13.4730   33.3210   20.9610 O.3   167  GNP167      0.0000
     18  C3'       12.6330   35.5600   21.3590 C.3   167  GNP167      0.0000
     19  O3'       13.5490   36.2430   22.2610 O.3   167  GNP167      0.0000
     20  C2'       13.2250   35.4370   19.9390 C.3   167  GNP167      0.0000
     21  O2'       14.0350   36.5560   19.5450 O.3   167  GNP167      0.0000
     22  C1'       14.1480   34.2180   20.0710 C.3   167  GNP167      0.0000
     23  N9        14.3700   33.5460   18.7640 N.ar  167  GNP167      0.0000
     24  C8        13.4210   33.1000   17.8750 C.ar  167  GNP167      0.0000
     25  N7        13.8830   32.4300   16.8950 N.ar  167  GNP167      0.0000
     26  C5        15.2440   32.4450   17.0900 C.ar  167  GNP167      0.0000
     27  C6        16.2640   31.8780   16.3020 C.ar  167  GNP167      0.0000
     28  O6        16.1430   31.2800   15.2290 O.2   167  GNP167      0.0000
     29  N1        17.5210   32.0820   16.8800 N.ar  167  GNP167      0.0000
     30  C2        17.7660   32.7830   18.0390 C.ar  167  GNP167      0.0000
     31  N2        19.0420   32.8980   18.4210 N.pl3 167  GNP167      0.0000
     32  N3        16.7890   33.3400   18.7620 N.ar  167  GNP167      0.0000
     33  C4        15.5640   33.1320   18.2310 C.ar  167  GNP167      0.0000
     34 HNB3        6.8670   33.1380   21.6080 H     167  GNP167      0.0000
     35 H5'2       10.3640   34.0760   22.0600 H     167  GNP167      0.0000
     36 H5'1       10.9980   32.4910   21.6090 H     167  GNP167      0.0000
     37  H4'       12.6780   33.9310   22.7970 H     167  GNP167      0.0000
     38  H3'       11.6680   36.0700   21.3790 H     167  GNP167      0.0000
     39 HO3'       13.2170   36.1320   23.1540 H     167  GNP167      0.0000
     40  H2'       12.4040   35.2260   19.2490 H     167  GNP167      0.0000
     41 HO2'       13.4430   37.2800   19.3240 H     167  GNP167      0.0000
     42  H1'       15.0970   34.5490   20.4850 H     167  GNP167      0.0000
     43  H8        12.3590   33.3100   17.9990 H     167  GNP167      0.0000
     44  HN1       18.2990   31.6480   16.4200 H     167  GNP167      0.0000
     45 HN21       19.2700   33.4050   19.2630 H     167  GNP167      0.0000
     46 HN22       19.7860   32.4810   17.8770 H     167  GNP167      0.0000
@<TRIPOS>BOND
     1    28    27    2
     2    27    29   ar
     3    27    26   ar
     4    44    29    1
     5    29    30   ar
     6    25    26   ar
     7    25    24   ar
     8    26    33   ar
     9    24    43    1
    10    24    23   ar
    11    46    31    1
    12    30    31    1
    13    30    32   ar
    14    12    11    2
    15    33    32   ar
    16    33    23   ar
    17    31    45    1
    18    23    22    1
    19     9     1    1
    20     9     7    1
    21     1     4    1
    22    40    20    1
    23    41    21    1
    24    21    20    1
    25    11    10    1
    26    11    14    1
    27    11    13    1
    28     8     7    2
    29    20    22    1
    30    20    18    1
    31     7    10    1
    32     7     6    1
    33    14    15    1
    34    22    42    1
    35    22    17    1
    36     4     2    1
    37    17    16    1
    38    18    38    1
    39    18    16    1
    40    18    19    1
    41    15    36    1
    42    15    16    1
    43    15    35    1
    44     6    34    1
    45     6     2    1
    46    16    37    1
    47     2     5    2
    48     2     3    1
    49    19    39    1
